192
Lattice="12.429633052346787 0.0 0.0 0.0 12.429633052346787 0.0 0.0 0.0 12.429633052346787" Properties=species:S:1:pos:R:3:momenta:R:3 pbc="T T T"
O       1.45418203       2.83658051       3.32360816       0.42113334      -0.94538589       0.54214136 
H       2.31015706       2.37473464       3.16914535      -0.28047408       0.03517018       0.00880233 
H       1.37179160       2.89433622       4.30045366      -0.09228107       0.06308506       0.40393159 
O      12.08207130       1.48377872       5.03847122       0.85443855       0.41333754       0.29625267 
H       0.05491307       1.13108349       5.85801363      -0.10330640       0.14914160       0.11362329 
H      11.20121384       1.05769968       5.05772638       0.11402563       0.04823913       0.24978470 
O       1.38403177       2.50513196       7.78158188       0.12571258      -0.37008911       0.03035975 
H       0.58873332       3.08392239       7.75221777       0.19725218       0.01131875       0.21864991 
H       1.98494554       2.75284314       7.04841614       0.19330651       0.14663525      -0.12855304 
O       3.45426130       2.61264086      10.10963917       0.24046327      -0.38744033       0.07806279 
H       3.20923114       3.55281234       9.99988651       0.03821566       0.25995833       0.00422681 
H       2.87189221       2.12598372       9.48705196       0.10791111      -0.21328552       0.34524311 
O       2.36087418       5.89372826       3.30055189      -0.02161236       0.54678127      -0.27426995 
H       2.89057779       5.09538889       3.07638383       0.03840200      -0.11275294       0.14603801 
H       2.40252519       5.93313551       4.28286839      -0.06540333       0.09944564       0.21212280 
O       0.42982951       5.42351818       4.94874954      -0.42254480       0.00929332       0.94034518 
H       1.33927608       5.23328543       5.26153135       0.09009086       0.07414735       0.07205811 
H       0.55540937       5.67189837       4.00965405       0.17287121       0.12324905       0.16054694 
O       3.55587482       4.55178213       7.98124504      -0.78132083      -0.57542422       0.37248529 
H       3.10384989       3.68652797       8.05082130       0.06554535       0.14239241      -0.09404386 
H       2.88459015       5.13061523       7.56825733       0.07992704       0.04574880      -0.27110050 
O       1.10870421       8.54924393       3.68286204      -0.37767062      -0.09006778      -0.64011310 
H       2.03041553       8.86385727       3.63549709       0.35657121      -0.06786948      -0.00815880 
H       1.07904136       7.89307117       2.96442485       0.11470660      -0.10213220       0.08084268 
O       3.14952135       7.57866001       1.00121546       0.54007989       0.72021854       0.13218127 
H       3.51800680       6.67351103       0.92558843      -0.09546263      -0.01755514       0.00910074 
H       3.62954354       8.17751217       0.39167553       0.26525812       0.06420586      -0.22691555 
O       0.11888072      11.43401051       6.62056017      -0.68742925       0.25428363       1.61986247 
H       0.07165022      11.30530739       7.59389448       0.02854542       0.23567981       0.15978892 
H       0.21498305      10.54453278       6.21626711      -0.01339966      -0.04005635       0.01272814 
O       2.73710823       8.90500832       6.85345125       0.64399293      -0.21947744       0.27460709 
H       3.00631833       9.76592445       7.21713734       0.09007900       0.08013720       0.03654601 
H       3.43845296       8.36465454       7.26468325       0.21343831      -0.08768386       0.26244033 
O       1.52737141       5.21063471      10.07413483      -0.88173011       0.20607544       0.03046168 
H       2.02587986       4.46090031       9.69366074      -0.39445236       0.17327389       0.04700122 
H       1.70735145       5.93621111       9.43555069      -0.07341080      -0.03363935      -0.11547668 
O       2.26906109       0.26439798       2.51470780      -0.33992018      -1.19819416      -0.40639700 
H       2.93825793       0.14977174       3.21374345      -0.21981733       0.02216376       0.04730861 
H       1.44049716       0.40349221       3.01181149       0.10718390       0.13692516      -0.04600664 
O       4.87837648       1.59734261       7.47357607       0.26840710      -0.69271490       0.68114146 
H       5.36661005       1.60485673       8.32633781       0.14265298       0.04141995       0.33638839 
H       4.05726719       1.13953590       7.75832319       0.08506331      -0.12571024      -0.24241274 
O       0.75146842       9.92841816       9.03294468       0.07829205       0.94789437      -0.88311636 
H       1.64982426      10.22144508       8.75446606      -0.22743483      -0.10764901       0.16970140 
H       0.15630522      10.63138390       8.70520496       0.10282557       0.26812147       0.05712153 
O       2.41371822       9.28598118      11.20753479      -0.51241285       1.37756315      -0.14997505 
H       2.86176276       8.45753860      11.45111465      -0.06698759      -0.20316009       0.19330437 
H       2.89434814       9.96440220      11.72770882      -0.20047937       0.07308546       0.20887052 
O       3.46496940      11.75146198      10.57085609      -0.28924462      -0.58996845       0.19317284 
H       4.05057049      10.96755505      10.46331596       0.16789247      -0.05131701      -0.01473928 
H       2.56682730      11.43030643      10.35989475       0.03611951       0.16987845      -0.17041404 
O       2.63964605       1.19036198       5.46400595      -0.23353723      -0.47023580      -0.24401610 
H       2.72520614       1.08993995       4.49283838       0.18906447      -0.12087813      -0.00644806 
H       3.17629409       1.98225796       5.65983582      -0.04950038      -0.15490026       0.08422308 
O       5.82945299       0.70340449      10.16106415      -0.71274244       0.00949938      -0.25472614 
H       4.99362516       0.81218624       9.65928745       0.23016618      -0.03437213       0.04649818 
H       6.39096785       1.47460544       9.95596600       0.10360684       0.29788474      -0.09922703 
O       9.30768204       0.92760885       9.63320541       0.66536918      -0.90436133       0.49712968 
H       8.49720573       0.50770634       9.27104568       0.10701698       0.04901963       0.26709448 
H       9.92712879       0.19312815       9.83578968       0.22118935      -0.16222984       0.13623961 
O       7.50653124       2.72391081      11.93404102       0.21853908       0.20448167       0.86371454 
H       7.51645088       2.06325746      11.19420815       0.22429414      -0.36820869       0.05502185 
H       6.79577875       3.40747309      11.80913258      -0.36743896       0.13388488       0.00065306 
O       2.80224633       3.89560556       5.32311153       0.62064720      -1.03337097      -0.36595846 
H       3.06409240       4.10358524       4.40964985      -0.08094368       0.14046707       0.22374920 
H       3.64503407       3.70738411       5.76512194       0.06503291      -0.06214945       0.24173520 
O       6.18694973       5.70215797       6.63078117      -0.65409418       0.62774309      -1.13183997 
H       7.01338720       5.26371145       6.91713333       0.47991189       0.28862931       0.07318287 
H       6.27970409       5.71429539       5.65151072       0.05360374      -0.01449247      -0.10558527 
O       6.73367834       4.64216995       9.30805206      -0.91833118      -0.30506294      -0.57532066 
H       7.38733721       4.72865963      10.03695202      -0.08135181      -0.34684143      -0.09388377 
H       7.35624695       4.52040720       8.55827522      -0.00670477       0.26265985      -0.04974356 
O       5.14664602       5.78479290       3.81702399      -2.13307352      -1.79562242       0.07966066 
H       5.24529457       5.63871384       4.77973938       0.07486396       0.16145012      -0.05143469 
H       5.80688953       5.17348862       3.43199039      -0.17030585      -0.08025380       0.13570174 
O       3.48084092       6.44138002       5.69436264      -0.02657530       0.98972646       0.22376534 
H       4.18912172       5.80792522       5.47064924      -0.16877380       0.00173119      -0.09877040 
H       3.58148885       6.50145674       6.66329098      -0.21629088      -0.24275360       0.02704594 
O       5.30368423       9.76070309       8.45562458      -0.53929664       0.42049451       0.07475674 
H       4.69835806       9.76801968       7.68901539       0.12798290       0.01881405       0.26095747 
H       5.05612326       8.97392845       8.97701836      -0.02455962       0.17654769      -0.08534587 
O       3.70570922       5.76943064      11.51777077      -0.24098348      -0.13689628       1.18310084 
H       3.90918541       4.90065765      11.09827900       0.28934977      -0.01387888       0.06288313 
H       4.66109133       6.01514864      11.56213093      -0.14764282       0.29831515       0.10883662 
O       6.03596354       8.56513500       2.36638737      -1.03045252      -0.18236548       0.45909706 
H       6.05880356       8.60255241       1.38613904       0.15821933      -0.03334092       0.05226599 
H       6.10345936       7.61117887       2.57735181       0.01664162       0.01546959       0.03174098 
O       5.03126049       8.92201805       4.93087912      -0.45689290       0.10930888      -0.09274760 
H       5.08163071       8.95126247       3.95497322      -0.33711683       0.09081130       0.09677082 
H       4.39040995       8.19374561       5.09964561      -0.15351960       0.12321034       0.21663750 
O       3.02810335      11.77820301       7.60838318      -0.91122568      -0.20341908      -0.82718798 
H       3.83777905      11.58921051       8.12279797      -0.10871214      -0.07652288       0.21150237 
H       3.41603017      11.96750450       6.73247766      -0.13765172      -0.29459394      -0.15743763 
O       5.21789026       8.78522205      11.51966476      -0.73830006      -0.14646339       0.52256474 
H       5.26947069       9.55537796      10.92251110      -0.22480681      -0.08409798      -0.01572170 
H       6.13913727       8.56337452      11.75969124      -0.35939750       0.19687449       0.15196048 
O       5.49163246      11.45926952       1.46513569      -0.50918083       1.26285200      -0.54793374 
H       6.22571325      12.08199596       1.33234751       0.08024256      -0.14002626       0.15546243 
H       5.25005960      11.31227112       0.53545636      -0.28125936      -0.24310136      -0.11664170 
O       5.83726263       3.28928137       5.43333960       0.72616545       0.39562353      -0.18866167 
H       6.03809929       2.83841205       6.27891111       0.23690156       0.08881568      -0.03219443 
H       6.49934292       4.01094866       5.36090660      -0.20343021      -0.13206117       0.22701789 
O       0.08095287       0.72009730       9.56783295      -0.15530257       1.51737203       0.01311236 
H       0.61163163       1.40977275      10.01118279      -0.01880208       0.18326694      -0.11614678 
H      11.78635979       1.18059874       9.10134602       0.06188329      -0.30991324      -0.05461027 
O      10.58051586       3.60201168       1.27921367      -0.01254069      -0.03008551       0.10009977 
H      10.96132183       3.48273969       0.38455936      -0.13325661       0.06891299       0.03042661 
H       9.81367874       4.20121384       1.16913128       0.12384310      -0.07961362      -0.01749304 
O      11.18778515       3.03530884       8.80323792       0.60940692       0.67698823       0.84448313 
H      11.16141033       2.96733761       7.82957983       0.03980597      -0.12705544      -0.21771904 
H      10.57477379       2.36393929       9.18321228       0.33786382       0.24448950      -0.05292719 
O       4.35035324       3.29170179       2.73972154       1.82028854       0.97881497      -0.05908700 
H       3.86274505       3.46734643       3.57065225      -0.03666513      -0.04549644       0.34998437 
H       5.21980000       3.72338772       2.88448858      -0.14299173       0.14134907      -0.18353322 
O       8.30542660       4.32402182       5.51358986      -1.67333300       0.58883776       0.46182751 
H       7.35509205       4.24683142       5.76934576      -0.26217614      -0.14337166      -0.30420131 
H       8.77901745       3.52124333       5.82805824      -0.31067449       0.13442128      -0.02065103 
O      11.10603333       3.55090237       6.14296865       0.20739280       0.11007280       0.79609515 
H      11.69234085       3.54633784       6.92928791      -0.10671777      -0.09017480      -0.11628019 
H      10.71345043       2.65295482       6.10525179      -0.08093064       0.04568223       0.23741291 
O       8.02972984       7.01221466      11.50681686       0.83981504      -0.08564592       0.30654378 
H       7.10871983       7.29809666      11.35607719      -0.03885910       0.04283314      -0.02231106 
H       8.25155640       7.57446480      12.27672005       0.12565549      -0.17008002      -0.16413595 
O       6.20349073       6.22385883       0.70449346       0.53415443      -0.49086080       0.38476306 
H       6.11543036       7.20377684       0.65598303      -0.03432668      -0.08439406       0.01713292 
H       7.15903091       6.01139355       0.61114806      -0.09938883      -0.22827861       0.06772856 
O       7.83020449       6.28192759       3.31651044       0.61174987      -0.19994371       0.29385554 
H       7.13715649       6.51637602       3.96639442      -0.14422209       0.00872192      -0.16883408 
H       8.55214691       6.91780043       3.49322367      -0.03049886      -0.17832508       0.16097772 
O       3.81546044       7.02821350       8.64585495       0.85249655      -0.21654581      -1.07312936 
H       3.21111155       7.07520247       7.88031006      -0.02449594      -0.07075874      -0.11445458 
H       3.25145197       6.71436071       9.37971306       0.06966710       0.13967665      -0.16508847 
O       7.83932638       9.79047108       0.83116519      -0.25097517      -1.05636221       0.23631964 
H       7.42916489       9.31485462       0.07716814       0.03005537       0.08473099      -0.16845466 
H       7.05053902      10.12961388       1.30477333       0.22879831      -0.17503474      -0.05919684 
O       8.24143887       2.57867908       7.62437773      -0.05267049      -0.18046141       0.84306759 
H       7.63737297       2.91328168       6.92998314       0.13916340      -0.06487303      -0.08536847 
H       8.91999626       2.17248392       7.05153656      -0.20045416      -0.00737238       0.08402968 
O       7.41171551      10.24061680      10.62419510      -0.36022066      -0.43313862       0.01232696 
H       7.32735395      10.69519329      11.48228741      -0.08611881       0.15588659       0.10989516 
H       6.51120234      10.29882812      10.23877430       0.09853240      -0.13184974       0.32414380 
O       8.56888962       0.28378570      11.99037743       0.03822735       0.82986148      -0.01006634 
H       8.26967144       0.63478667      11.12125874       0.08782204       0.23892729      -0.03707337 
H       8.66115189      11.75353336      11.83194637       0.04502674       0.16954679      -0.14994824 
O       1.00364602      11.73663998      12.37512779      -0.68238311      -1.03545966       0.13724514 
H       0.59575754       0.08323541      11.92301083       0.05067614       0.12417791       0.12466452 
H       1.95529079      11.93985939       0.06696520      -0.09501633       0.15772045       0.17841656 
O      11.98998642       1.20832729       1.83357620      -1.02941626      -0.81456429      -0.67442675 
H       0.51434332       1.35501492       1.69674277      -0.05883553       0.07348354       0.03475147 
H      11.66554260       2.12322903       1.78133881      -0.12608335      -0.15593856      -0.08416048 
O       9.11220074       1.86266947       4.93028069       0.33569668      -0.52386026       0.38313739 
H       8.34004879       2.15816498       5.46591187       0.02384119      -0.00154065      -0.07112739 
H       9.30262375       0.97721809       5.30509853      -0.09896303       0.24708645      -0.20883228 
O       0.11225694       3.57515192      11.61023045       0.01881530       0.98606707       0.67377847 
H      11.68477535       3.13111877      11.77737331       0.18199751       0.14342296      -0.09398354 
H       0.64414036       2.88018990      11.17242336      -0.15929593       0.23661207       0.09336341 
O      11.87924099       6.22917557       2.12896776      -0.13575060      -0.27252472      -0.05851497 
H       0.20605843       6.65592098       2.57854486       0.11992820      -0.07507430       0.10955788 
H      11.57634449       6.88429642       1.47086418      -0.00666040      -0.00902113       0.15851705 
O       7.04957056       3.28868222       2.43274975       1.00777208      -0.57333358      -0.21600641 
H       7.02697849       4.26771975       2.46347761       0.07823740      -0.00190037       0.05916820 
H       7.48601007       3.04876256       1.58780289      -0.02219747      -0.06043411      -0.04529708 
O      11.72784996       7.10336828      10.18875694      -0.51329505      -0.47714754       0.13318918 
H      11.58432102       7.67266130      10.97404385       0.08395696       0.21252232       0.07883354 
H       0.17982967       7.35125065       9.84461975       0.00599653       0.02005701       0.16837904 
O       0.45008999       7.97018099       0.58725464       0.40805864       0.53019190      -0.09046134 
H      12.51184368       7.60027504      12.18960094       0.21961075      -0.01476724      -0.35872665 
H       0.72184026       8.87301826       0.32534254       0.17400161       0.00967060      -0.04824849 
O       9.76082420       7.88276005       1.63886893      -0.98321731       0.53180565       0.36525187 
H      10.34200287       7.17837000       1.28513598       0.11806552       0.05346965      -0.01971708 
H       9.09463310       8.16094208       0.97319359      -0.01143032      -0.02074133       0.03819791 
O      10.72894669       7.94572687       4.77862024      -0.23784751      -0.78395246      -0.37597001 
H      10.83104610       7.21221828       5.41984224      -0.20356517       0.10038003      -0.27079918 
H      11.64005756       8.19746113       4.54302311      -0.00444963       0.06746083       0.05869982 
O      10.48972511      10.38606548       7.61937428       0.68059671      -0.08182353       0.22329084 
H      10.13955021      11.09161854       7.03766298      -0.20084605       0.17490383      -0.23091342 
H       9.69545555       9.94327927       7.98531199      -0.14898225      -0.07044753      -0.05500219 
O       1.12506223       5.93312788       7.50789070       0.93944816       0.06853036       0.09952593 
H       1.96530247       6.42656851       7.46286774       0.13257338      -0.02708203       0.35617710 
H       1.33413148       5.25957203       8.17805290       0.08559195       0.14799872       0.09239150 
O      11.84364700      10.23935509       1.85017872      -0.88977915       0.46740991       0.52401945 
H      12.22457027      11.13286591       1.93994009       0.43048361       0.19511956      -0.01999261 
H      12.08817673      10.04551315       0.92437524       0.13831669       0.14093785       0.08255634 
O      10.05823326      11.46768951       4.59872723      -0.31649056      -0.27046245       0.14566157 
H      10.82822037      11.29995251       5.17999172       0.33778970      -0.11246985       0.08789373 
H       9.63086796      12.27537537       4.95363569       0.09200505       0.07186165      -0.02162332 
O      10.32173634       0.92254180       7.10427189       0.38532749      -0.28777856       0.09677779 
H       9.41150570       1.02761960       6.76136112      -0.11201319       0.22563691      -0.33400134 
H      10.80362415       1.64514673       6.64006710      -0.11766863      -0.10590547       0.05349075 
O      11.18855000      10.15005112      11.42676830      -0.67722004      -0.48159396      -0.44343328 
H      11.70837212      10.34829807      12.23581123      -0.32345315       0.00503499      -0.14847065 
H      11.57370567      10.80571938      10.80678368      -0.16102079       0.20953254       0.21877391 
